*Heading
 Test elements of the type {ELEM_TYPE} with hex shape
*Preprint, echo=NO, model=NO, history=NO, contact=NO
**
** PARTS
**
*Part, name=test_part
*End Part
**  
**
** ASSEMBLY
**
*Assembly, name=Assembly
**  
*Instance, name=test_instance, part=test_part
*Node
      1,  0.0,  0.0,  0.0
      2,  10.0, 0.0,  0.0
      3,  0.0,  20.0, 0.0
      4,  10.0, 20.0, 0.0
      5,  0.0,  0.0,  30.0
      6,  10.0, 0.0,  30.0
      7,  0.0,  20.0, 30.0
      8,  10.0, 20.0, 30.0
*Element, type={ELEM_TYPE}
1, 1, 2, 4, 3, 5, 6, 8, 7
*Nset, nset=set-test_part, generate
 1,  8,  1
*Elset, elset=set-test_part
 1,
** Section:
*Solid Section, elset=set-test_part, material=test-material
1.0,
*End Instance
**  
*Nset, nset=set_load, internal, instance=test_instance
 5, 6, 7, 8
*Nset, nset=set_bc_1, internal, instance=test_instance
 1
*Nset, nset=set_bc_2, internal, instance=test_instance
 4
*Nset, nset=set_bc_3, internal, instance=test_instance
 2, 3
*End Assembly
** 
** MATERIALS
** 
*Material, name=test-material
*Elastic
1e05, 0.25
** 
** BOUNDARY CONDITIONS
** 
*Boundary
set_bc_1, 1, 3
set_bc_2, 1
set_bc_2, 3
set_bc_3, 3, 3
** ----------------------------------------------------------------
** 
** STEP:
** 
*Step, name=test-step, nlgeom=NO, inc=10
*Static
1., 1., 1e-05, 1.
** 
** LOADS
** 
*Cload
set_load, 3, 1e03
** 
** OUTPUT REQUESTS
** 
*Restart, write, frequency=0
** 
** FIELD OUTPUT: F-Output-1
** 
*Output, field, variable=PRESELECT
** 
** HISTORY OUTPUT: H-Output-1
** 
*Output, history, variable=PRESELECT
** 
** Output to ASCII-file
** 
*FILE FORMAT, ASCII
**
*EL FILE
S, E, COORD
**
*NODE FILE
COORD, U
**
*End Step
